*SPEF "ieee 1481-1999"
*DESIGN "LFSR"
*DATE "00:04:59 Sunday May 03, 2026"
*VENDOR "The OpenROAD Project"
*PROGRAM "OpenROAD"
*VERSION "26Q1-951-g6975124cf2"
*DESIGN_FLOW "NAME_SCOPE LOCAL" "PIN_CAP NONE"
*DIVIDER /
*DELIMITER :
*BUS_DELIMITER []
*T_UNIT 1 NS
*C_UNIT 1 PF
*R_UNIT 1 OHM
*L_UNIT 1 HENRY

*NAME_MAP
*1 net2
*2 net3
*3 net4
*4 net5
*5 _00_
*6 _01_
*7 _02_
*8 _03_
*9 _04_
*10 _05_
*11 _06_
*12 _07_
*13 _08_
*14 _09_
*15 _10_
*16 _11_
*17 _12_
*18 clk
*19 Q[2]
*20 Q[1]
*21 Q[0]
*22 rst
*23 net1
*26 Q[3]
*27 clknet_0_clk
*28 clknet_1_0__leaf_clk
*29 clknet_1_1__leaf_clk
*30 _13_
*31 _14_
*32 _15_
*33 _16_
*34 _17_
*35 _18_
*36 _19_
*37 _20_
*38 _21_
*39 output4
*40 output3
*41 output2
*42 input1
*43 dff1\.Q\$_SDFF_PP1_
*44 dff2\.Q\$_SDFF_PP0_
*45 dff3\.Q\$_SDFF_PP0_
*46 dff4\.Q\$_SDFF_PP0_
*47 PHY_EDGE_ROW_0_Right_0
*48 PHY_EDGE_ROW_1_Right_1
*49 PHY_EDGE_ROW_2_Right_2
*50 PHY_EDGE_ROW_3_Right_3
*51 PHY_EDGE_ROW_4_Right_4
*52 PHY_EDGE_ROW_5_Right_5
*53 PHY_EDGE_ROW_6_Right_6
*54 PHY_EDGE_ROW_7_Right_7
*55 PHY_EDGE_ROW_8_Right_8
*56 PHY_EDGE_ROW_9_Right_9
*57 PHY_EDGE_ROW_10_Right_10
*58 PHY_EDGE_ROW_11_Right_11
*59 PHY_EDGE_ROW_12_Right_12
*60 PHY_EDGE_ROW_13_Right_13
*61 PHY_EDGE_ROW_14_Right_14
*62 PHY_EDGE_ROW_15_Right_15
*63 PHY_EDGE_ROW_16_Right_16
*64 PHY_EDGE_ROW_17_Right_17
*65 PHY_EDGE_ROW_18_Right_18
*66 PHY_EDGE_ROW_19_Right_19
*67 PHY_EDGE_ROW_20_Right_20
*68 PHY_EDGE_ROW_21_Right_21
*69 PHY_EDGE_ROW_22_Right_22
*70 PHY_EDGE_ROW_23_Right_23
*71 PHY_EDGE_ROW_24_Right_24
*72 PHY_EDGE_ROW_25_Right_25
*73 PHY_EDGE_ROW_26_Right_26
*74 PHY_EDGE_ROW_27_Right_27
*75 PHY_EDGE_ROW_28_Right_28
*76 PHY_EDGE_ROW_29_Right_29
*77 PHY_EDGE_ROW_30_Right_30
*78 PHY_EDGE_ROW_31_Right_31
*79 PHY_EDGE_ROW_32_Right_32
*80 PHY_EDGE_ROW_33_Right_33
*81 PHY_EDGE_ROW_34_Right_34
*82 PHY_EDGE_ROW_35_Right_35
*83 PHY_EDGE_ROW_36_Right_36
*84 PHY_EDGE_ROW_37_Right_37
*85 PHY_EDGE_ROW_38_Right_38
*86 PHY_EDGE_ROW_39_Right_39
*87 PHY_EDGE_ROW_40_Right_40
*88 PHY_EDGE_ROW_41_Right_41
*89 PHY_EDGE_ROW_0_Left_42
*90 PHY_EDGE_ROW_1_Left_43
*91 PHY_EDGE_ROW_2_Left_44
*92 PHY_EDGE_ROW_3_Left_45
*93 PHY_EDGE_ROW_4_Left_46
*94 PHY_EDGE_ROW_5_Left_47
*95 PHY_EDGE_ROW_6_Left_48
*96 PHY_EDGE_ROW_7_Left_49
*97 PHY_EDGE_ROW_8_Left_50
*98 PHY_EDGE_ROW_9_Left_51
*99 PHY_EDGE_ROW_10_Left_52
*100 PHY_EDGE_ROW_11_Left_53
*101 PHY_EDGE_ROW_12_Left_54
*102 PHY_EDGE_ROW_13_Left_55
*103 PHY_EDGE_ROW_14_Left_56
*104 PHY_EDGE_ROW_15_Left_57
*105 PHY_EDGE_ROW_16_Left_58
*106 PHY_EDGE_ROW_17_Left_59
*107 PHY_EDGE_ROW_18_Left_60
*108 PHY_EDGE_ROW_19_Left_61
*109 PHY_EDGE_ROW_20_Left_62
*110 PHY_EDGE_ROW_21_Left_63
*111 PHY_EDGE_ROW_22_Left_64
*112 PHY_EDGE_ROW_23_Left_65
*113 PHY_EDGE_ROW_24_Left_66
*114 PHY_EDGE_ROW_25_Left_67
*115 PHY_EDGE_ROW_26_Left_68
*116 PHY_EDGE_ROW_27_Left_69
*117 PHY_EDGE_ROW_28_Left_70
*118 PHY_EDGE_ROW_29_Left_71
*119 PHY_EDGE_ROW_30_Left_72
*120 PHY_EDGE_ROW_31_Left_73
*121 PHY_EDGE_ROW_32_Left_74
*122 PHY_EDGE_ROW_33_Left_75
*123 PHY_EDGE_ROW_34_Left_76
*124 PHY_EDGE_ROW_35_Left_77
*125 PHY_EDGE_ROW_36_Left_78
*126 PHY_EDGE_ROW_37_Left_79
*127 PHY_EDGE_ROW_38_Left_80
*128 PHY_EDGE_ROW_39_Left_81
*129 PHY_EDGE_ROW_40_Left_82
*130 PHY_EDGE_ROW_41_Left_83
*131 output5
*132 clkbuf_0_clk
*133 clkbuf_1_0__f_clk
*134 clkbuf_1_1__f_clk
*135 FILLER_0_1
*136 FILLER_0_33
*137 FILLER_0_65
*138 FILLER_0_97
*139 FILLER_0_129
*140 FILLER_0_161
*141 FILLER_0_193
*142 FILLER_0_225
*143 FILLER_0_257
*144 FILLER_0_289
*145 FILLER_0_305
*146 FILLER_0_313
*147 FILLER_1_1
*148 FILLER_1_33
*149 FILLER_1_65
*150 FILLER_1_97
*151 FILLER_1_129
*152 FILLER_1_161
*153 FILLER_1_193
*154 FILLER_1_225
*155 FILLER_1_257
*156 FILLER_1_289
*157 FILLER_1_305
*158 FILLER_1_313
*159 FILLER_2_1
*160 FILLER_2_33
*161 FILLER_2_65
*162 FILLER_2_97
*163 FILLER_2_129
*164 FILLER_2_161
*165 FILLER_2_193
*166 FILLER_2_225
*167 FILLER_2_257
*168 FILLER_2_289
*169 FILLER_2_305
*170 FILLER_2_313
*171 FILLER_3_1
*172 FILLER_3_33
*173 FILLER_3_65
*174 FILLER_3_97
*175 FILLER_3_129
*176 FILLER_3_161
*177 FILLER_3_193
*178 FILLER_3_225
*179 FILLER_3_257
*180 FILLER_3_289
*181 FILLER_3_305
*182 FILLER_3_313
*183 FILLER_4_1
*184 FILLER_4_33
*185 FILLER_4_65
*186 FILLER_4_97
*187 FILLER_4_129
*188 FILLER_4_161
*189 FILLER_4_193
*190 FILLER_4_225
*191 FILLER_4_257
*192 FILLER_4_289
*193 FILLER_4_305
*194 FILLER_4_313
*195 FILLER_5_1
*196 FILLER_5_33
*197 FILLER_5_65
*198 FILLER_5_97
*199 FILLER_5_129
*200 FILLER_5_161
*201 FILLER_5_193
*202 FILLER_5_225
*203 FILLER_5_257
*204 FILLER_5_289
*205 FILLER_5_305
*206 FILLER_5_313
*207 FILLER_6_1
*208 FILLER_6_33
*209 FILLER_6_65
*210 FILLER_6_97
*211 FILLER_6_129
*212 FILLER_6_161
*213 FILLER_6_193
*214 FILLER_6_225
*215 FILLER_6_257
*216 FILLER_6_289
*217 FILLER_6_305
*218 FILLER_6_313
*219 FILLER_7_1
*220 FILLER_7_33
*221 FILLER_7_65
*222 FILLER_7_97
*223 FILLER_7_129
*224 FILLER_7_161
*225 FILLER_7_193
*226 FILLER_7_225
*227 FILLER_7_257
*228 FILLER_7_289
*229 FILLER_7_305
*230 FILLER_7_313
*231 FILLER_8_1
*232 FILLER_8_33
*233 FILLER_8_65
*234 FILLER_8_97
*235 FILLER_8_129
*236 FILLER_8_161
*237 FILLER_8_193
*238 FILLER_8_225
*239 FILLER_8_257
*240 FILLER_8_289
*241 FILLER_8_305
*242 FILLER_8_313
*243 FILLER_9_1
*244 FILLER_9_33
*245 FILLER_9_65
*246 FILLER_9_97
*247 FILLER_9_129
*248 FILLER_9_161
*249 FILLER_9_193
*250 FILLER_9_225
*251 FILLER_9_257
*252 FILLER_9_289
*253 FILLER_9_305
*254 FILLER_9_313
*255 FILLER_10_1
*256 FILLER_10_33
*257 FILLER_10_65
*258 FILLER_10_97
*259 FILLER_10_129
*260 FILLER_10_161
*261 FILLER_10_193
*262 FILLER_10_225
*263 FILLER_10_257
*264 FILLER_10_289
*265 FILLER_10_305
*266 FILLER_10_313
*267 FILLER_11_1
*268 FILLER_11_33
*269 FILLER_11_65
*270 FILLER_11_97
*271 FILLER_11_129
*272 FILLER_11_161
*273 FILLER_11_193
*274 FILLER_11_225
*275 FILLER_11_257
*276 FILLER_11_289
*277 FILLER_11_305
*278 FILLER_11_313
*279 FILLER_12_1
*280 FILLER_12_33
*281 FILLER_12_65
*282 FILLER_12_97
*283 FILLER_12_129
*284 FILLER_12_161
*285 FILLER_12_193
*286 FILLER_12_225
*287 FILLER_12_257
*288 FILLER_12_289
*289 FILLER_12_305
*290 FILLER_12_313
*291 FILLER_13_1
*292 FILLER_13_33
*293 FILLER_13_65
*294 FILLER_13_97
*295 FILLER_13_129
*296 FILLER_13_161
*297 FILLER_13_193
*298 FILLER_13_225
*299 FILLER_13_257
*300 FILLER_13_289
*301 FILLER_13_305
*302 FILLER_13_313
*303 FILLER_14_1
*304 FILLER_14_33
*305 FILLER_14_65
*306 FILLER_14_97
*307 FILLER_14_129
*308 FILLER_14_161
*309 FILLER_14_193
*310 FILLER_14_225
*311 FILLER_14_257
*312 FILLER_14_289
*313 FILLER_14_305
*314 FILLER_14_313
*315 FILLER_15_1
*316 FILLER_15_33
*317 FILLER_15_65
*318 FILLER_15_97
*319 FILLER_15_129
*320 FILLER_15_161
*321 FILLER_15_193
*322 FILLER_15_200
*323 FILLER_15_232
*324 FILLER_15_264
*325 FILLER_15_296
*326 FILLER_15_312
*327 FILLER_16_1
*328 FILLER_16_33
*329 FILLER_16_65
*330 FILLER_16_97
*331 FILLER_16_129
*332 FILLER_16_145
*333 FILLER_16_149
*334 FILLER_16_153
*335 FILLER_16_185
*336 FILLER_16_217
*337 FILLER_16_249
*338 FILLER_16_281
*339 FILLER_16_313
*340 FILLER_17_1
*341 FILLER_17_33
*342 FILLER_17_65
*343 FILLER_17_97
*344 FILLER_17_129
*345 FILLER_17_161
*346 FILLER_17_193
*347 FILLER_17_225
*348 FILLER_17_257
*349 FILLER_17_275
*350 FILLER_17_307
*351 FILLER_17_311
*352 FILLER_17_313
*353 FILLER_18_1
*354 FILLER_18_33
*355 FILLER_18_65
*356 FILLER_18_97
*357 FILLER_18_129
*358 FILLER_18_161
*359 FILLER_18_193
*360 FILLER_18_225
*361 FILLER_18_241
*362 FILLER_18_249
*363 FILLER_18_251
*364 FILLER_18_275
*365 FILLER_18_279
*366 FILLER_18_297
*367 FILLER_18_299
*368 FILLER_18_303
*369 FILLER_18_311
*370 FILLER_18_313
*371 FILLER_19_1
*372 FILLER_19_33
*373 FILLER_19_65
*374 FILLER_19_97
*375 FILLER_19_129
*376 FILLER_19_161
*377 FILLER_19_193
*378 FILLER_19_225
*379 FILLER_19_233
*380 FILLER_19_237
*381 FILLER_19_243
*382 FILLER_19_259
*383 FILLER_19_267
*384 FILLER_19_280
*385 FILLER_19_287
*386 FILLER_19_303
*387 FILLER_19_307
*388 FILLER_20_1
*389 FILLER_20_33
*390 FILLER_20_65
*391 FILLER_20_97
*392 FILLER_20_129
*393 FILLER_20_161
*394 FILLER_20_193
*395 FILLER_20_225
*396 FILLER_20_241
*397 FILLER_20_249
*398 FILLER_20_253
*399 FILLER_20_255
*400 FILLER_20_295
*401 FILLER_20_302
*402 FILLER_20_310
*403 FILLER_21_1
*404 FILLER_21_33
*405 FILLER_21_65
*406 FILLER_21_97
*407 FILLER_21_129
*408 FILLER_21_161
*409 FILLER_21_193
*410 FILLER_21_225
*411 FILLER_21_257
*412 FILLER_21_289
*413 FILLER_21_305
*414 FILLER_21_313
*415 FILLER_22_1
*416 FILLER_22_33
*417 FILLER_22_65
*418 FILLER_22_97
*419 FILLER_22_129
*420 FILLER_22_145
*421 FILLER_22_153
*422 FILLER_22_157
*423 FILLER_22_161
*424 FILLER_22_193
*425 FILLER_22_225
*426 FILLER_22_257
*427 FILLER_22_289
*428 FILLER_22_305
*429 FILLER_22_313
*430 FILLER_23_1
*431 FILLER_23_33
*432 FILLER_23_65
*433 FILLER_23_97
*434 FILLER_23_129
*435 FILLER_23_161
*436 FILLER_23_193
*437 FILLER_23_225
*438 FILLER_23_257
*439 FILLER_23_289
*440 FILLER_23_305
*441 FILLER_23_313
*442 FILLER_24_1
*443 FILLER_24_33
*444 FILLER_24_65
*445 FILLER_24_97
*446 FILLER_24_129
*447 FILLER_24_161
*448 FILLER_24_193
*449 FILLER_24_225
*450 FILLER_24_257
*451 FILLER_24_289
*452 FILLER_24_305
*453 FILLER_24_313
*454 FILLER_25_1
*455 FILLER_25_33
*456 FILLER_25_65
*457 FILLER_25_97
*458 FILLER_25_129
*459 FILLER_25_161
*460 FILLER_25_193
*461 FILLER_25_225
*462 FILLER_25_257
*463 FILLER_25_289
*464 FILLER_25_305
*465 FILLER_25_313
*466 FILLER_26_1
*467 FILLER_26_33
*468 FILLER_26_65
*469 FILLER_26_97
*470 FILLER_26_129
*471 FILLER_26_161
*472 FILLER_26_193
*473 FILLER_26_225
*474 FILLER_26_257
*475 FILLER_26_289
*476 FILLER_26_305
*477 FILLER_26_313
*478 FILLER_27_1
*479 FILLER_27_33
*480 FILLER_27_65
*481 FILLER_27_97
*482 FILLER_27_129
*483 FILLER_27_161
*484 FILLER_27_193
*485 FILLER_27_225
*486 FILLER_27_257
*487 FILLER_27_289
*488 FILLER_27_305
*489 FILLER_27_313
*490 FILLER_28_1
*491 FILLER_28_33
*492 FILLER_28_65
*493 FILLER_28_97
*494 FILLER_28_129
*495 FILLER_28_161
*496 FILLER_28_193
*497 FILLER_28_225
*498 FILLER_28_257
*499 FILLER_28_289
*500 FILLER_28_305
*501 FILLER_28_313
*502 FILLER_29_1
*503 FILLER_29_33
*504 FILLER_29_65
*505 FILLER_29_97
*506 FILLER_29_129
*507 FILLER_29_161
*508 FILLER_29_193
*509 FILLER_29_225
*510 FILLER_29_257
*511 FILLER_29_289
*512 FILLER_29_305
*513 FILLER_29_313
*514 FILLER_30_1
*515 FILLER_30_33
*516 FILLER_30_65
*517 FILLER_30_97
*518 FILLER_30_129
*519 FILLER_30_161
*520 FILLER_30_193
*521 FILLER_30_225
*522 FILLER_30_257
*523 FILLER_30_289
*524 FILLER_30_305
*525 FILLER_30_313
*526 FILLER_31_1
*527 FILLER_31_33
*528 FILLER_31_65
*529 FILLER_31_97
*530 FILLER_31_129
*531 FILLER_31_161
*532 FILLER_31_193
*533 FILLER_31_225
*534 FILLER_31_257
*535 FILLER_31_289
*536 FILLER_31_305
*537 FILLER_31_313
*538 FILLER_32_1
*539 FILLER_32_33
*540 FILLER_32_65
*541 FILLER_32_97
*542 FILLER_32_129
*543 FILLER_32_161
*544 FILLER_32_193
*545 FILLER_32_225
*546 FILLER_32_257
*547 FILLER_32_289
*548 FILLER_32_305
*549 FILLER_32_313
*550 FILLER_33_1
*551 FILLER_33_33
*552 FILLER_33_65
*553 FILLER_33_97
*554 FILLER_33_129
*555 FILLER_33_161
*556 FILLER_33_193
*557 FILLER_33_225
*558 FILLER_33_257
*559 FILLER_33_289
*560 FILLER_33_305
*561 FILLER_33_313
*562 FILLER_34_1
*563 FILLER_34_33
*564 FILLER_34_65
*565 FILLER_34_97
*566 FILLER_34_129
*567 FILLER_34_161
*568 FILLER_34_193
*569 FILLER_34_225
*570 FILLER_34_257
*571 FILLER_34_289
*572 FILLER_34_305
*573 FILLER_34_313
*574 FILLER_35_1
*575 FILLER_35_33
*576 FILLER_35_65
*577 FILLER_35_97
*578 FILLER_35_129
*579 FILLER_35_161
*580 FILLER_35_193
*581 FILLER_35_225
*582 FILLER_35_257
*583 FILLER_35_289
*584 FILLER_35_305
*585 FILLER_35_313
*586 FILLER_36_1
*587 FILLER_36_33
*588 FILLER_36_65
*589 FILLER_36_97
*590 FILLER_36_129
*591 FILLER_36_161
*592 FILLER_36_193
*593 FILLER_36_225
*594 FILLER_36_257
*595 FILLER_36_289
*596 FILLER_36_305
*597 FILLER_36_313
*598 FILLER_37_1
*599 FILLER_37_33
*600 FILLER_37_65
*601 FILLER_37_97
*602 FILLER_37_129
*603 FILLER_37_161
*604 FILLER_37_193
*605 FILLER_37_225
*606 FILLER_37_257
*607 FILLER_37_289
*608 FILLER_37_305
*609 FILLER_37_313
*610 FILLER_38_1
*611 FILLER_38_33
*612 FILLER_38_65
*613 FILLER_38_97
*614 FILLER_38_129
*615 FILLER_38_161
*616 FILLER_38_193
*617 FILLER_38_225
*618 FILLER_38_257
*619 FILLER_38_289
*620 FILLER_38_305
*621 FILLER_38_313
*622 FILLER_39_1
*623 FILLER_39_33
*624 FILLER_39_65
*625 FILLER_39_97
*626 FILLER_39_129
*627 FILLER_39_161
*628 FILLER_39_193
*629 FILLER_39_225
*630 FILLER_39_257
*631 FILLER_39_289
*632 FILLER_39_305
*633 FILLER_39_313
*634 FILLER_40_1
*635 FILLER_40_33
*636 FILLER_40_65
*637 FILLER_40_97
*638 FILLER_40_129
*639 FILLER_40_161
*640 FILLER_40_193
*641 FILLER_40_225
*642 FILLER_40_257
*643 FILLER_40_289
*644 FILLER_40_305
*645 FILLER_40_313
*646 FILLER_41_1
*647 FILLER_41_33
*648 FILLER_41_65
*649 FILLER_41_97
*650 FILLER_41_129
*651 FILLER_41_161
*652 FILLER_41_193
*653 FILLER_41_225
*654 FILLER_41_257
*655 FILLER_41_289
*656 FILLER_41_305
*657 FILLER_41_313

*PORTS
Q[0] O
Q[1] O
Q[2] O
Q[3] O
clk I
rst I

*D_NET *1 0.00178696
*CONN
*I *31:A2 I *D AND2_X2
*I *41:A I *D BUF_X1
*I *43:Q O *D DFF_X1
*CAP
1 *31:A2 2.00098e-05
2 *41:A 0.000130148
3 *43:Q 0
4 *1:8 0.000764535
5 *1:6 0.000654397
6 *31:A2 *43:D 1.40309e-05
7 *41:A *21:6 1.21774e-06
8 *1:8 *43:D 0.000159392
9 *1:8 *43:CK 4.32319e-05
10 *1:8 *27:25 0
11 *1:8 *28:10 0
*RES
1 *43:Q *1:6 10 
2 *1:6 *1:8 75.5715 
3 *1:8 *41:A 23.2857 
4 *1:6 *31:A2 12.6071 
*END

*D_NET *2 0.000319714
*CONN
*I *40:A I *D BUF_X1
*I *32:A2 I *D AND2_X2
*I *44:Q O *D DFF_X1
*CAP
1 *40:A 4.43191e-05
2 *32:A2 0.000103315
3 *44:Q 0
4 *2:4 0.000147634
5 *32:A2 *44:CK 5.86754e-06
6 *32:A2 *29:8 1.8578e-05
7 *40:A *44:CK 0
*RES
1 *44:Q *2:4 5 
2 *2:4 *32:A2 26.4643 
3 *2:4 *40:A 19.8929 
*END

*D_NET *3 0.000537977
*CONN
*I *39:A I *D BUF_X1
*I *33:A I *D INV_X1
*I *37:A1 I *D NAND2_X1
*I *45:Q O *D DFF_X1
*CAP
1 *39:A 2.58684e-05
2 *33:A 4.65211e-05
3 *37:A1 2.54966e-05
4 *45:Q 0
5 *3:8 0.000213485
6 *3:6 0.000167336
7 *33:A *38:A1 3.46254e-05
8 *33:A *4:6 0
9 *33:A *10:8 7.40507e-06
10 *37:A1 *30:A 1.72405e-05
11 *37:A1 *34:A1 0
12 *39:A *29:8 0
13 *3:8 *44:CK 0
14 *3:8 *29:8 0
*RES
1 *45:Q *3:6 10 
2 *3:6 *3:8 15.1786 
3 *3:8 *37:A1 12.2857 
4 *3:8 *33:A 15.6786 
5 *3:6 *39:A 12.9643 
*END

*D_NET *4 0.00119409
*CONN
*I *37:A2 I *D NAND2_X1
*I *35:A I *D INV_X1
*I *131:A I *D BUF_X1
*I *46:Q O *D DFF_X1
*CAP
1 *37:A2 1.77335e-05
2 *35:A 0
3 *131:A 0
4 *46:Q 0
5 *4:12 0.000405999
6 *4:10 0.000501943
7 *4:6 0.000128258
8 *4:4 5.00475e-05
9 *37:A2 *30:A 6.38328e-07
10 *37:A2 *36:A2 0
11 *37:A2 *38:A1 0
12 *37:A2 *46:D 4.30918e-06
13 *4:6 *30:A 3.58094e-06
14 *4:6 *38:A1 0
15 *4:6 *46:D 9.14865e-06
16 *4:10 *30:A 7.16188e-07
17 *4:10 *10:8 2.23415e-06
18 *4:10 *23:12 1.79047e-05
19 *4:12 *23:8 5.15734e-05
20 *33:A *4:6 0
*RES
1 *46:Q *4:4 5 
2 *4:4 *4:6 3.75 
3 *4:6 *4:10 15.25 
4 *4:10 *4:12 48.4286 
5 *4:12 *131:A 10 
6 *4:6 *35:A 5 
7 *4:4 *37:A2 7.17857 
*END

*D_NET *5 8.20609e-05
*CONN
*I *44:D I *D DFF_X1
*I *31:ZN O *D AND2_X2
*CAP
1 *44:D 3.88382e-05
2 *31:ZN 3.88382e-05
3 *44:D *32:A1 4.38441e-06
*RES
1 *31:ZN *44:D 24.3214 
*END

*D_NET *6 0.000107588
*CONN
*I *45:D I *D DFF_X1
*I *32:ZN O *D AND2_X2
*CAP
1 *45:D 4.812e-05
2 *32:ZN 4.812e-05
3 *45:D *44:CK 2.75346e-06
4 *45:D *45:CK 8.5943e-06
*RES
1 *32:ZN *45:D 15.1786 
*END

*D_NET *7 0.000237374
*CONN
*I *46:D I *D DFF_X1
*I *34:ZN O *D NOR2_X1
*CAP
1 *46:D 8.6819e-05
2 *34:ZN 8.6819e-05
3 *46:D *30:A 5.02784e-05
4 *46:D *28:10 0
5 *37:A2 *46:D 4.30918e-06
6 *4:6 *46:D 9.14865e-06
*RES
1 *34:ZN *46:D 30.2857 
*END

*D_NET *8 0.000401168
*CONN
*I *43:D I *D DFF_X1
*I *38:ZN O *D NAND3_X1
*CAP
1 *43:D 9.39726e-05
2 *38:ZN 9.39726e-05
3 *43:D *31:A1 2.20333e-05
4 *43:D *32:A1 2.84765e-06
5 *43:D *43:CK 1.25215e-05
6 *43:D *9:19 2.39679e-06
7 *43:D *28:10 0
8 *31:A2 *43:D 1.40309e-05
9 *1:8 *43:D 0.000159392
*RES
1 *38:ZN *43:D 33.25 
*END

*D_NET *9 0.000424436
*CONN
*I *31:A1 I *D AND2_X2
*I *32:A1 I *D AND2_X2
*I *38:A2 I *D NAND3_X1
*I *30:ZN O *D INV_X2
*CAP
1 *31:A1 3.27068e-05
2 *32:A1 7.28945e-05
3 *38:A2 0
4 *30:ZN 2.69888e-05
5 *9:19 0.000124242
6 *9:8 4.56295e-05
7 *32:A1 *38:A1 0
8 *32:A1 *44:CK 3.5108e-06
9 *32:A1 *18:18 3.46052e-06
10 *32:A1 *27:15 4.03572e-06
11 *9:8 *38:A1 3.69302e-05
12 *9:8 *38:A3 3.96215e-05
13 *9:19 *38:A1 2.75346e-06
14 *43:D *31:A1 2.20333e-05
15 *43:D *32:A1 2.84765e-06
16 *43:D *9:19 2.39679e-06
17 *44:D *32:A1 4.38441e-06
*RES
1 *30:ZN *9:8 9.67857 
2 *9:8 *38:A2 5 
3 *9:8 *9:19 2.92857 
4 *9:19 *32:A1 23.1071 
5 *9:19 *31:A1 8.25 
*END

*D_NET *10 0.000136223
*CONN
*I *36:A1 I *D NAND2_X1
*I *34:A1 I *D NOR2_X1
*I *33:ZN O *D INV_X1
*CAP
1 *36:A1 0
2 *34:A1 3.74504e-05
3 *33:ZN 2.4975e-05
4 *10:8 6.24254e-05
5 *34:A1 *30:A 0
6 *10:8 *38:A1 1.7326e-06
7 *33:A *10:8 7.40507e-06
8 *37:A1 *34:A1 0
9 *4:10 *10:8 2.23415e-06
*RES
1 *33:ZN *10:8 7.85714 
2 *10:8 *34:A1 18.6429 
3 *10:8 *36:A1 5 
*END

*D_NET *11 1.74261e-05
*CONN
*I *36:A2 I *D NAND2_X1
*I *35:ZN O *D INV_X1
*CAP
1 *36:A2 8.71307e-06
2 *35:ZN 8.71307e-06
3 *36:A2 *38:A3 0
4 *37:A2 *36:A2 0
*RES
1 *35:ZN *36:A2 10.9286 
*END

*D_NET *12 0.000270595
*CONN
*I *38:A1 I *D NAND3_X1
*I *36:ZN O *D NAND2_X1
*CAP
1 *38:A1 9.36817e-05
2 *36:ZN 9.36817e-05
3 *38:A1 *30:A 7.19036e-06
4 *32:A1 *38:A1 0
5 *33:A *38:A1 3.46254e-05
6 *37:A2 *38:A1 0
7 *4:6 *38:A1 0
8 *9:8 *38:A1 3.69302e-05
9 *9:19 *38:A1 2.75346e-06
10 *10:8 *38:A1 1.7326e-06
*RES
1 *36:ZN *38:A1 22.0357 
*END

*D_NET *13 0.00011823
*CONN
*I *38:A3 I *D NAND3_X1
*I *37:ZN O *D NAND2_X1
*CAP
1 *38:A3 3.93043e-05
2 *37:ZN 3.93043e-05
3 *38:A3 *43:CK 0
4 *38:A3 *46:CK 0
5 *36:A2 *38:A3 0
6 *9:8 *38:A3 3.96215e-05
*RES
1 *37:ZN *38:A3 14.6786 
*END

*D_NET *18 0.00416822
*CONN
*P clk I
*I *132:A I *D CLKBUF_X3
*CAP
1 clk 0.00111272
2 *132:A 0
3 *18:18 8.87484e-06
4 *18:14 0.000963347
5 *18:6 0.00206719
6 *18:6 Q[0] 1.26269e-05
7 *32:A1 *18:18 3.46052e-06
*RES
1 clk *18:6 53.955 
2 *18:6 *18:14 45.27 
3 *18:14 *18:18 5.67857 
4 *18:18 *132:A 10 
*END

*D_NET *19 0.000837474
*CONN
*P Q[2] O
*I *39:Z O *D BUF_X1
*CAP
1 Q[2] 0.000418737
2 *39:Z 0.000418737
3 Q[2] *29:8 0
*RES
1 *39:Z Q[2] 49.7022 
*END

*D_NET *20 0.00104454
*CONN
*P Q[1] O
*I *40:Z O *D BUF_X1
*CAP
1 Q[1] 0.000160061
2 *40:Z 0.000362211
3 *20:12 0.000522272
4 *20:12 *27:45 0
*RES
1 *40:Z *20:12 47.6057 
2 *20:12 Q[1] 9.825 
*END

*D_NET *21 0.00264156
*CONN
*P Q[0] O
*I *41:Z O *D BUF_X1
*CAP
1 Q[0] 9.22313e-05
2 *41:Z 0
3 *21:6 0.00131386
4 *21:4 0.00122163
5 *41:A *21:6 1.21774e-06
6 *18:6 Q[0] 1.26269e-05
*RES
1 *41:Z *21:4 5 
2 *21:4 *21:6 123.25 
3 *21:6 Q[0] 21.1807 
*END

*D_NET *22 0.00235463
*CONN
*P rst I
*I *42:A I *D BUF_X1
*CAP
1 rst 0.000895664
2 *42:A 1.74534e-05
3 *22:5 0.000913118
4 *22:5 Q[3] 0.000528395
*RES
1 rst *22:5 51.345 
2 *22:5 *42:A 23 
*END

*D_NET *23 0.00177868
*CONN
*I *30:A I *D INV_X2
*I *34:A2 I *D NOR2_X1
*I *42:Z O *D BUF_X1
*CAP
1 *30:A 9.00363e-05
2 *34:A2 0
3 *42:Z 0
4 *23:12 0.000153823
5 *23:8 0.000724263
6 *23:6 0.000660476
7 *30:A *46:CK 9.62051e-07
8 *34:A1 *30:A 0
9 *37:A1 *30:A 1.72405e-05
10 *37:A2 *30:A 6.38328e-07
11 *38:A1 *30:A 7.19036e-06
12 *46:D *30:A 5.02784e-05
13 *4:6 *30:A 3.58094e-06
14 *4:10 *30:A 7.16188e-07
15 *4:10 *23:12 1.79047e-05
16 *4:12 *23:8 5.15734e-05
*RES
1 *42:Z *23:6 10 
2 *23:6 *23:8 76.9286 
3 *23:8 *23:12 12.25 
4 *23:12 *34:A2 5 
5 *23:12 *30:A 26 
*END

*D_NET *26 0.00284493
*CONN
*P Q[3] O
*I *131:Z O *D BUF_X1
*CAP
1 Q[3] 0.000845481
2 *131:Z 0.000312786
3 *26:14 0.00115827
4 *22:5 Q[3] 0.000528395
*RES
1 *131:Z *26:14 34.23 
2 *26:14 Q[3] 48.825 
*END

*D_NET *27 0.00104811
*CONN
*I *134:A I *D CLKBUF_X3
*I *133:A I *D CLKBUF_X3
*I *132:Z O *D CLKBUF_X3
*CAP
1 *134:A 0
2 *133:A 0
3 *132:Z 0
4 *27:45 0.000229184
5 *27:25 0.000286531
6 *27:15 0.000519201
7 *27:6 3.48572e-06
8 *27:45 *29:8 5.66851e-06
9 *32:A1 *27:15 4.03572e-06
10 *1:8 *27:25 0
11 *20:12 *27:45 0
*RES
1 *132:Z *27:6 10 
2 *27:6 *27:15 8.53571 
3 *27:15 *27:25 20.7557 
4 *27:25 *133:A 10 
5 *27:15 *27:45 17.9229 
6 *27:45 *134:A 10 
*END

*D_NET *28 0.000552984
*CONN
*I *43:CK I *D DFF_X1
*I *46:CK I *D DFF_X1
*I *133:Z O *D CLKBUF_X3
*CAP
1 *43:CK 7.2976e-05
2 *46:CK 5.81616e-05
3 *133:Z 0.000116997
4 *28:10 0.000248134
5 *30:A *46:CK 9.62051e-07
6 *38:A3 *43:CK 0
7 *38:A3 *46:CK 0
8 *43:D *43:CK 1.25215e-05
9 *43:D *28:10 0
10 *46:D *28:10 0
11 *1:8 *43:CK 4.32319e-05
12 *1:8 *28:10 0
*RES
1 *133:Z *28:10 28.1429 
2 *28:10 *46:CK 10.6786 
3 *28:10 *43:CK 23.0357 
*END

*D_NET *29 0.000550177
*CONN
*I *45:CK I *D DFF_X1
*I *44:CK I *D DFF_X1
*I *134:Z O *D CLKBUF_X3
*CAP
1 *45:CK 4.00281e-05
2 *44:CK 7.49134e-05
3 *134:Z 0.000137661
4 *29:8 0.000252602
5 Q[2] *29:8 0
6 *32:A1 *44:CK 3.5108e-06
7 *32:A2 *44:CK 5.86754e-06
8 *32:A2 *29:8 1.8578e-05
9 *39:A *29:8 0
10 *40:A *44:CK 0
11 *45:D *44:CK 2.75346e-06
12 *45:D *45:CK 8.5943e-06
13 *3:8 *44:CK 0
14 *3:8 *29:8 0
15 *27:45 *29:8 5.66851e-06
*RES
1 *134:Z *29:8 25.8571 
2 *29:8 *44:CK 17.8571 
3 *29:8 *45:CK 14.25 
*END
