*SPEF "ieee 1481-1999"
*DESIGN "bi_shift_reg"
*DATE "17:31:50 Monday March 30, 2026"
*VENDOR "The OpenROAD Project"
*PROGRAM "OpenROAD"
*VERSION "26Q1-951-g6975124cf2"
*DESIGN_FLOW "NAME_SCOPE LOCAL" "PIN_CAP NONE"
*DIVIDER /
*DELIMITER :
*BUS_DELIMITER []
*T_UNIT 1 NS
*C_UNIT 1 PF
*R_UNIT 1 OHM
*L_UNIT 1 HENRY

*NAME_MAP
*1 net1
*2 net2
*3 net3
*4 net4
*5 net10
*6 net11
*7 net12
*8 net13
*9 net5
*10 net6
*11 _00_
*12 _01_
*13 _02_
*14 _03_
*15 _04_
*16 S[1]
*17 _06_
*18 S[0]
*19 _08_
*20 _09_
*21 _10_
*22 _11_
*23 _12_
*24 _13_
*25 _14_
*26 _15_
*27 _16_
*28 _17_
*29 _18_
*30 _19_
*31 _20_
*32 _21_
*33 _22_
*34 _23_
*35 _24_
*36 _25_
*37 _26_
*38 _27_
*39 _28_
*40 _29_
*41 _30_
*42 _31_
*43 _32_
*44 _33_
*45 _34_
*46 _35_
*47 _36_
*48 _37_
*49 clk
*50 Din[3]
*51 Din[2]
*52 Din[1]
*53 Din[0]
*54 net7
*55 net8
*56 net9
*59 ls_bit
*60 rs_bit
*61 rst
*62 Dout[0]
*63 Dout[1]
*64 Dout[2]
*65 Dout[3]
*66 clknet_0_clk
*67 clknet_1_0__leaf_clk
*68 clknet_1_1__leaf_clk
*69 net14
*70 net15
*71 net16
*72 net17
*73 input6
*74 _39_
*75 input5
*76 _41_
*77 _42_
*78 _43_
*79 _44_
*80 _45_
*81 _46_
*82 _47_
*83 _48_
*84 _49_
*85 _50_
*86 _51_
*87 _52_
*88 _53_
*89 _54_
*90 _55_
*91 _56_
*92 _57_
*93 _58_
*94 _59_
*95 _60_
*96 _61_
*97 _62_
*98 _63_
*99 _64_
*100 _65_
*101 _66_
*102 _67_
*103 _68_
*104 _69_
*105 _70_
*106 _71_
*107 input4
*108 input3
*109 input2
*110 input1
*111 dff0\.Q\$_DFFE_PP0N_
*112 dff1\.Q\$_DFFE_PP0N_
*113 dff2\.Q\$_DFFE_PP0N_
*114 dff3\.Q\$_DFFE_PP0N_
*115 PHY_EDGE_ROW_0_Right_0
*116 PHY_EDGE_ROW_1_Right_1
*117 PHY_EDGE_ROW_2_Right_2
*118 PHY_EDGE_ROW_3_Right_3
*119 PHY_EDGE_ROW_4_Right_4
*120 PHY_EDGE_ROW_5_Right_5
*121 PHY_EDGE_ROW_6_Right_6
*122 PHY_EDGE_ROW_7_Right_7
*123 PHY_EDGE_ROW_8_Right_8
*124 PHY_EDGE_ROW_9_Right_9
*125 PHY_EDGE_ROW_10_Right_10
*126 PHY_EDGE_ROW_11_Right_11
*127 PHY_EDGE_ROW_12_Right_12
*128 PHY_EDGE_ROW_13_Right_13
*129 PHY_EDGE_ROW_14_Right_14
*130 PHY_EDGE_ROW_15_Right_15
*131 PHY_EDGE_ROW_16_Right_16
*132 PHY_EDGE_ROW_17_Right_17
*133 PHY_EDGE_ROW_18_Right_18
*134 PHY_EDGE_ROW_19_Right_19
*135 PHY_EDGE_ROW_20_Right_20
*136 PHY_EDGE_ROW_21_Right_21
*137 PHY_EDGE_ROW_22_Right_22
*138 PHY_EDGE_ROW_23_Right_23
*139 PHY_EDGE_ROW_24_Right_24
*140 PHY_EDGE_ROW_25_Right_25
*141 PHY_EDGE_ROW_26_Right_26
*142 PHY_EDGE_ROW_27_Right_27
*143 PHY_EDGE_ROW_28_Right_28
*144 PHY_EDGE_ROW_29_Right_29
*145 PHY_EDGE_ROW_30_Right_30
*146 PHY_EDGE_ROW_31_Right_31
*147 PHY_EDGE_ROW_32_Right_32
*148 PHY_EDGE_ROW_33_Right_33
*149 PHY_EDGE_ROW_34_Right_34
*150 PHY_EDGE_ROW_35_Right_35
*151 PHY_EDGE_ROW_36_Right_36
*152 PHY_EDGE_ROW_37_Right_37
*153 PHY_EDGE_ROW_38_Right_38
*154 PHY_EDGE_ROW_39_Right_39
*155 PHY_EDGE_ROW_40_Right_40
*156 PHY_EDGE_ROW_41_Right_41
*157 PHY_EDGE_ROW_42_Right_42
*158 PHY_EDGE_ROW_43_Right_43
*159 PHY_EDGE_ROW_44_Right_44
*160 PHY_EDGE_ROW_45_Right_45
*161 PHY_EDGE_ROW_46_Right_46
*162 PHY_EDGE_ROW_47_Right_47
*163 PHY_EDGE_ROW_48_Right_48
*164 PHY_EDGE_ROW_49_Right_49
*165 PHY_EDGE_ROW_50_Right_50
*166 PHY_EDGE_ROW_51_Right_51
*167 PHY_EDGE_ROW_52_Right_52
*168 PHY_EDGE_ROW_53_Right_53
*169 PHY_EDGE_ROW_54_Right_54
*170 PHY_EDGE_ROW_55_Right_55
*171 PHY_EDGE_ROW_56_Right_56
*172 PHY_EDGE_ROW_57_Right_57
*173 PHY_EDGE_ROW_58_Right_58
*174 PHY_EDGE_ROW_59_Right_59
*175 PHY_EDGE_ROW_60_Right_60
*176 PHY_EDGE_ROW_61_Right_61
*177 PHY_EDGE_ROW_62_Right_62
*178 PHY_EDGE_ROW_63_Right_63
*179 PHY_EDGE_ROW_64_Right_64
*180 PHY_EDGE_ROW_65_Right_65
*181 PHY_EDGE_ROW_66_Right_66
*182 PHY_EDGE_ROW_67_Right_67
*183 PHY_EDGE_ROW_68_Right_68
*184 PHY_EDGE_ROW_69_Right_69
*185 PHY_EDGE_ROW_70_Right_70
*186 PHY_EDGE_ROW_71_Right_71
*187 PHY_EDGE_ROW_72_Right_72
*188 PHY_EDGE_ROW_73_Right_73
*189 PHY_EDGE_ROW_74_Right_74
*190 PHY_EDGE_ROW_75_Right_75
*191 PHY_EDGE_ROW_76_Right_76
*192 PHY_EDGE_ROW_77_Right_77
*193 PHY_EDGE_ROW_78_Right_78
*194 PHY_EDGE_ROW_79_Right_79
*195 PHY_EDGE_ROW_80_Right_80
*196 PHY_EDGE_ROW_81_Right_81
*197 PHY_EDGE_ROW_82_Right_82
*198 PHY_EDGE_ROW_83_Right_83
*199 PHY_EDGE_ROW_84_Right_84
*200 PHY_EDGE_ROW_85_Right_85
*201 PHY_EDGE_ROW_86_Right_86
*202 PHY_EDGE_ROW_87_Right_87
*203 PHY_EDGE_ROW_88_Right_88
*204 PHY_EDGE_ROW_89_Right_89
*205 PHY_EDGE_ROW_90_Right_90
*206 PHY_EDGE_ROW_91_Right_91
*207 PHY_EDGE_ROW_0_Left_92
*208 PHY_EDGE_ROW_1_Left_93
*209 PHY_EDGE_ROW_2_Left_94
*210 PHY_EDGE_ROW_3_Left_95
*211 PHY_EDGE_ROW_4_Left_96
*212 PHY_EDGE_ROW_5_Left_97
*213 PHY_EDGE_ROW_6_Left_98
*214 PHY_EDGE_ROW_7_Left_99
*215 PHY_EDGE_ROW_8_Left_100
*216 PHY_EDGE_ROW_9_Left_101
*217 PHY_EDGE_ROW_10_Left_102
*218 PHY_EDGE_ROW_11_Left_103
*219 PHY_EDGE_ROW_12_Left_104
*220 PHY_EDGE_ROW_13_Left_105
*221 PHY_EDGE_ROW_14_Left_106
*222 PHY_EDGE_ROW_15_Left_107
*223 PHY_EDGE_ROW_16_Left_108
*224 PHY_EDGE_ROW_17_Left_109
*225 PHY_EDGE_ROW_18_Left_110
*226 PHY_EDGE_ROW_19_Left_111
*227 PHY_EDGE_ROW_20_Left_112
*228 PHY_EDGE_ROW_21_Left_113
*229 PHY_EDGE_ROW_22_Left_114
*230 PHY_EDGE_ROW_23_Left_115
*231 PHY_EDGE_ROW_24_Left_116
*232 PHY_EDGE_ROW_25_Left_117
*233 PHY_EDGE_ROW_26_Left_118
*234 PHY_EDGE_ROW_27_Left_119
*235 PHY_EDGE_ROW_28_Left_120
*236 PHY_EDGE_ROW_29_Left_121
*237 PHY_EDGE_ROW_30_Left_122
*238 PHY_EDGE_ROW_31_Left_123
*239 PHY_EDGE_ROW_32_Left_124
*240 PHY_EDGE_ROW_33_Left_125
*241 PHY_EDGE_ROW_34_Left_126
*242 PHY_EDGE_ROW_35_Left_127
*243 PHY_EDGE_ROW_36_Left_128
*244 PHY_EDGE_ROW_37_Left_129
*245 PHY_EDGE_ROW_38_Left_130
*246 PHY_EDGE_ROW_39_Left_131
*247 PHY_EDGE_ROW_40_Left_132
*248 PHY_EDGE_ROW_41_Left_133
*249 PHY_EDGE_ROW_42_Left_134
*250 PHY_EDGE_ROW_43_Left_135
*251 PHY_EDGE_ROW_44_Left_136
*252 PHY_EDGE_ROW_45_Left_137
*253 PHY_EDGE_ROW_46_Left_138
*254 PHY_EDGE_ROW_47_Left_139
*255 PHY_EDGE_ROW_48_Left_140
*256 PHY_EDGE_ROW_49_Left_141
*257 PHY_EDGE_ROW_50_Left_142
*258 PHY_EDGE_ROW_51_Left_143
*259 PHY_EDGE_ROW_52_Left_144
*260 PHY_EDGE_ROW_53_Left_145
*261 PHY_EDGE_ROW_54_Left_146
*262 PHY_EDGE_ROW_55_Left_147
*263 PHY_EDGE_ROW_56_Left_148
*264 PHY_EDGE_ROW_57_Left_149
*265 PHY_EDGE_ROW_58_Left_150
*266 PHY_EDGE_ROW_59_Left_151
*267 PHY_EDGE_ROW_60_Left_152
*268 PHY_EDGE_ROW_61_Left_153
*269 PHY_EDGE_ROW_62_Left_154
*270 PHY_EDGE_ROW_63_Left_155
*271 PHY_EDGE_ROW_64_Left_156
*272 PHY_EDGE_ROW_65_Left_157
*273 PHY_EDGE_ROW_66_Left_158
*274 PHY_EDGE_ROW_67_Left_159
*275 PHY_EDGE_ROW_68_Left_160
*276 PHY_EDGE_ROW_69_Left_161
*277 PHY_EDGE_ROW_70_Left_162
*278 PHY_EDGE_ROW_71_Left_163
*279 PHY_EDGE_ROW_72_Left_164
*280 PHY_EDGE_ROW_73_Left_165
*281 PHY_EDGE_ROW_74_Left_166
*282 PHY_EDGE_ROW_75_Left_167
*283 PHY_EDGE_ROW_76_Left_168
*284 PHY_EDGE_ROW_77_Left_169
*285 PHY_EDGE_ROW_78_Left_170
*286 PHY_EDGE_ROW_79_Left_171
*287 PHY_EDGE_ROW_80_Left_172
*288 PHY_EDGE_ROW_81_Left_173
*289 PHY_EDGE_ROW_82_Left_174
*290 PHY_EDGE_ROW_83_Left_175
*291 PHY_EDGE_ROW_84_Left_176
*292 PHY_EDGE_ROW_85_Left_177
*293 PHY_EDGE_ROW_86_Left_178
*294 PHY_EDGE_ROW_87_Left_179
*295 PHY_EDGE_ROW_88_Left_180
*296 PHY_EDGE_ROW_89_Left_181
*297 PHY_EDGE_ROW_90_Left_182
*298 PHY_EDGE_ROW_91_Left_183
*299 TAP_TAPCELL_ROW_0_184
*300 TAP_TAPCELL_ROW_2_185
*301 TAP_TAPCELL_ROW_4_186
*302 TAP_TAPCELL_ROW_6_187
*303 TAP_TAPCELL_ROW_8_188
*304 TAP_TAPCELL_ROW_10_189
*305 TAP_TAPCELL_ROW_12_190
*306 TAP_TAPCELL_ROW_14_191
*307 TAP_TAPCELL_ROW_16_192
*308 TAP_TAPCELL_ROW_18_193
*309 TAP_TAPCELL_ROW_20_194
*310 TAP_TAPCELL_ROW_22_195
*311 TAP_TAPCELL_ROW_24_196
*312 TAP_TAPCELL_ROW_26_197
*313 TAP_TAPCELL_ROW_28_198
*314 TAP_TAPCELL_ROW_30_199
*315 TAP_TAPCELL_ROW_32_200
*316 TAP_TAPCELL_ROW_34_201
*317 TAP_TAPCELL_ROW_36_202
*318 TAP_TAPCELL_ROW_38_203
*319 TAP_TAPCELL_ROW_40_204
*320 TAP_TAPCELL_ROW_42_205
*321 TAP_TAPCELL_ROW_44_206
*322 TAP_TAPCELL_ROW_46_207
*323 TAP_TAPCELL_ROW_48_208
*324 TAP_TAPCELL_ROW_50_209
*325 TAP_TAPCELL_ROW_52_210
*326 TAP_TAPCELL_ROW_54_211
*327 TAP_TAPCELL_ROW_56_212
*328 TAP_TAPCELL_ROW_58_213
*329 TAP_TAPCELL_ROW_60_214
*330 TAP_TAPCELL_ROW_62_215
*331 TAP_TAPCELL_ROW_64_216
*332 TAP_TAPCELL_ROW_66_217
*333 TAP_TAPCELL_ROW_68_218
*334 TAP_TAPCELL_ROW_70_219
*335 TAP_TAPCELL_ROW_72_220
*336 TAP_TAPCELL_ROW_74_221
*337 TAP_TAPCELL_ROW_76_222
*338 TAP_TAPCELL_ROW_78_223
*339 TAP_TAPCELL_ROW_80_224
*340 TAP_TAPCELL_ROW_82_225
*341 TAP_TAPCELL_ROW_84_226
*342 TAP_TAPCELL_ROW_86_227
*343 TAP_TAPCELL_ROW_88_228
*344 TAP_TAPCELL_ROW_90_229
*345 TAP_TAPCELL_ROW_91_230
*346 input7
*347 input8
*348 input9
*349 output10
*350 output11
*351 output12
*352 output13
*353 clkbuf_0_clk
*354 clkbuf_1_0__f_clk
*355 clkbuf_1_1__f_clk
*356 hold14
*357 hold15
*358 hold16
*359 hold17
*360 FILLER_0_1
*361 FILLER_0_33
*362 FILLER_0_65
*363 FILLER_0_97
*364 FILLER_0_129
*365 FILLER_0_161
*366 FILLER_0_193
*367 FILLER_0_225
*368 FILLER_0_257
*369 FILLER_0_289
*370 FILLER_0_321
*371 FILLER_0_353
*372 FILLER_0_385
*373 FILLER_0_417
*374 FILLER_0_449
*375 FILLER_0_481
*376 FILLER_0_513
*377 FILLER_0_545
*378 FILLER_0_577
*379 FILLER_0_609
*380 FILLER_0_625
*381 FILLER_0_629
*382 FILLER_0_632
*383 FILLER_0_664
*384 FILLER_0_680
*385 FILLER_1_1
*386 FILLER_1_33
*387 FILLER_1_65
*388 FILLER_1_97
*389 FILLER_1_129
*390 FILLER_1_161
*391 FILLER_1_193
*392 FILLER_1_225
*393 FILLER_1_257
*394 FILLER_1_289
*395 FILLER_1_321
*396 FILLER_1_353
*397 FILLER_1_385
*398 FILLER_1_417
*399 FILLER_1_449
*400 FILLER_1_481
*401 FILLER_1_513
*402 FILLER_1_545
*403 FILLER_1_577
*404 FILLER_1_609
*405 FILLER_1_641
*406 FILLER_1_673
*407 FILLER_1_681
*408 FILLER_2_1
*409 FILLER_2_33
*410 FILLER_2_65
*411 FILLER_2_97
*412 FILLER_2_129
*413 FILLER_2_161
*414 FILLER_2_193
*415 FILLER_2_225
*416 FILLER_2_257
*417 FILLER_2_289
*418 FILLER_2_321
*419 FILLER_2_353
*420 FILLER_2_385
*421 FILLER_2_417
*422 FILLER_2_449
*423 FILLER_2_481
*424 FILLER_2_513
*425 FILLER_2_545
*426 FILLER_2_577
*427 FILLER_2_609
*428 FILLER_2_625
*429 FILLER_2_629
*430 FILLER_2_632
*431 FILLER_2_664
*432 FILLER_2_680
*433 FILLER_3_1
*434 FILLER_3_33
*435 FILLER_3_65
*436 FILLER_3_97
*437 FILLER_3_129
*438 FILLER_3_161
*439 FILLER_3_193
*440 FILLER_3_225
*441 FILLER_3_257
*442 FILLER_3_289
*443 FILLER_3_321
*444 FILLER_3_353
*445 FILLER_3_385
*446 FILLER_3_417
*447 FILLER_3_449
*448 FILLER_3_481
*449 FILLER_3_513
*450 FILLER_3_545
*451 FILLER_3_577
*452 FILLER_3_609
*453 FILLER_3_641
*454 FILLER_3_673
*455 FILLER_3_681
*456 FILLER_4_1
*457 FILLER_4_33
*458 FILLER_4_65
*459 FILLER_4_97
*460 FILLER_4_129
*461 FILLER_4_161
*462 FILLER_4_193
*463 FILLER_4_225
*464 FILLER_4_257
*465 FILLER_4_289
*466 FILLER_4_321
*467 FILLER_4_353
*468 FILLER_4_385
*469 FILLER_4_417
*470 FILLER_4_449
*471 FILLER_4_481
*472 FILLER_4_513
*473 FILLER_4_545
*474 FILLER_4_577
*475 FILLER_4_609
*476 FILLER_4_625
*477 FILLER_4_629
*478 FILLER_4_632
*479 FILLER_4_664
*480 FILLER_4_680
*481 FILLER_5_1
*482 FILLER_5_33
*483 FILLER_5_65
*484 FILLER_5_97
*485 FILLER_5_129
*486 FILLER_5_161
*487 FILLER_5_193
*488 FILLER_5_225
*489 FILLER_5_257
*490 FILLER_5_289
*491 FILLER_5_321
*492 FILLER_5_353
*493 FILLER_5_385
*494 FILLER_5_417
*495 FILLER_5_449
*496 FILLER_5_481
*497 FILLER_5_513
*498 FILLER_5_545
*499 FILLER_5_577
*500 FILLER_5_609
*501 FILLER_5_641
*502 FILLER_5_673
*503 FILLER_5_681
*504 FILLER_6_1
*505 FILLER_6_33
*506 FILLER_6_65
*507 FILLER_6_97
*508 FILLER_6_129
*509 FILLER_6_161
*510 FILLER_6_193
*511 FILLER_6_225
*512 FILLER_6_257
*513 FILLER_6_289
*514 FILLER_6_321
*515 FILLER_6_353
*516 FILLER_6_385
*517 FILLER_6_417
*518 FILLER_6_449
*519 FILLER_6_481
*520 FILLER_6_513
*521 FILLER_6_545
*522 FILLER_6_577
*523 FILLER_6_609
*524 FILLER_6_625
*525 FILLER_6_629
*526 FILLER_6_632
*527 FILLER_6_664
*528 FILLER_6_680
*529 FILLER_7_1
*530 FILLER_7_33
*531 FILLER_7_65
*532 FILLER_7_97
*533 FILLER_7_129
*534 FILLER_7_161
*535 FILLER_7_193
*536 FILLER_7_225
*537 FILLER_7_257
*538 FILLER_7_289
*539 FILLER_7_321
*540 FILLER_7_353
*541 FILLER_7_385
*542 FILLER_7_417
*543 FILLER_7_449
*544 FILLER_7_481
*545 FILLER_7_513
*546 FILLER_7_545
*547 FILLER_7_577
*548 FILLER_7_609
*549 FILLER_7_641
*550 FILLER_7_673
*551 FILLER_7_681
*552 FILLER_8_1
*553 FILLER_8_33
*554 FILLER_8_65
*555 FILLER_8_97
*556 FILLER_8_129
*557 FILLER_8_161
*558 FILLER_8_193
*559 FILLER_8_225
*560 FILLER_8_257
*561 FILLER_8_289
*562 FILLER_8_321
*563 FILLER_8_353
*564 FILLER_8_385
*565 FILLER_8_417
*566 FILLER_8_449
*567 FILLER_8_481
*568 FILLER_8_513
*569 FILLER_8_545
*570 FILLER_8_577
*571 FILLER_8_609
*572 FILLER_8_625
*573 FILLER_8_629
*574 FILLER_8_632
*575 FILLER_8_664
*576 FILLER_8_680
*577 FILLER_9_1
*578 FILLER_9_33
*579 FILLER_9_65
*580 FILLER_9_97
*581 FILLER_9_129
*582 FILLER_9_161
*583 FILLER_9_193
*584 FILLER_9_225
*585 FILLER_9_257
*586 FILLER_9_289
*587 FILLER_9_321
*588 FILLER_9_353
*589 FILLER_9_385
*590 FILLER_9_417
*591 FILLER_9_449
*592 FILLER_9_481
*593 FILLER_9_513
*594 FILLER_9_545
*595 FILLER_9_577
*596 FILLER_9_609
*597 FILLER_9_641
*598 FILLER_9_673
*599 FILLER_9_681
*600 FILLER_10_1
*601 FILLER_10_33
*602 FILLER_10_65
*603 FILLER_10_97
*604 FILLER_10_129
*605 FILLER_10_161
*606 FILLER_10_193
*607 FILLER_10_225
*608 FILLER_10_257
*609 FILLER_10_289
*610 FILLER_10_321
*611 FILLER_10_353
*612 FILLER_10_385
*613 FILLER_10_417
*614 FILLER_10_449
*615 FILLER_10_481
*616 FILLER_10_513
*617 FILLER_10_545
*618 FILLER_10_577
*619 FILLER_10_609
*620 FILLER_10_625
*621 FILLER_10_629
*622 FILLER_10_632
*623 FILLER_10_664
*624 FILLER_10_680
*625 FILLER_11_1
*626 FILLER_11_33
*627 FILLER_11_65
*628 FILLER_11_97
*629 FILLER_11_129
*630 FILLER_11_161
*631 FILLER_11_193
*632 FILLER_11_225
*633 FILLER_11_257
*634 FILLER_11_289
*635 FILLER_11_321
*636 FILLER_11_353
*637 FILLER_11_385
*638 FILLER_11_417
*639 FILLER_11_449
*640 FILLER_11_481
*641 FILLER_11_513
*642 FILLER_11_545
*643 FILLER_11_577
*644 FILLER_11_609
*645 FILLER_11_641
*646 FILLER_11_673
*647 FILLER_11_681
*648 FILLER_12_1
*649 FILLER_12_33
*650 FILLER_12_65
*651 FILLER_12_97
*652 FILLER_12_129
*653 FILLER_12_161
*654 FILLER_12_193
*655 FILLER_12_225
*656 FILLER_12_257
*657 FILLER_12_289
*658 FILLER_12_321
*659 FILLER_12_353
*660 FILLER_12_385
*661 FILLER_12_417
*662 FILLER_12_449
*663 FILLER_12_481
*664 FILLER_12_513
*665 FILLER_12_545
*666 FILLER_12_577
*667 FILLER_12_609
*668 FILLER_12_625
*669 FILLER_12_629
*670 FILLER_12_632
*671 FILLER_12_664
*672 FILLER_12_680
*673 FILLER_13_1
*674 FILLER_13_33
*675 FILLER_13_65
*676 FILLER_13_97
*677 FILLER_13_129
*678 FILLER_13_161
*679 FILLER_13_193
*680 FILLER_13_225
*681 FILLER_13_257
*682 FILLER_13_289
*683 FILLER_13_321
*684 FILLER_13_353
*685 FILLER_13_385
*686 FILLER_13_417
*687 FILLER_13_449
*688 FILLER_13_481
*689 FILLER_13_513
*690 FILLER_13_545
*691 FILLER_13_577
*692 FILLER_13_609
*693 FILLER_13_641
*694 FILLER_13_673
*695 FILLER_13_681
*696 FILLER_14_1
*697 FILLER_14_33
*698 FILLER_14_65
*699 FILLER_14_97
*700 FILLER_14_129
*701 FILLER_14_161
*702 FILLER_14_193
*703 FILLER_14_225
*704 FILLER_14_257
*705 FILLER_14_289
*706 FILLER_14_321
*707 FILLER_14_353
*708 FILLER_14_385
*709 FILLER_14_417
*710 FILLER_14_449
*711 FILLER_14_481
*712 FILLER_14_513
*713 FILLER_14_545
*714 FILLER_14_577
*715 FILLER_14_609
*716 FILLER_14_625
*717 FILLER_14_629
*718 FILLER_14_632
*719 FILLER_14_664
*720 FILLER_14_680
*721 FILLER_15_1
*722 FILLER_15_33
*723 FILLER_15_65
*724 FILLER_15_97
*725 FILLER_15_129
*726 FILLER_15_161
*727 FILLER_15_193
*728 FILLER_15_225
*729 FILLER_15_257
*730 FILLER_15_289
*731 FILLER_15_321
*732 FILLER_15_353
*733 FILLER_15_385
*734 FILLER_15_417
*735 FILLER_15_449
*736 FILLER_15_481
*737 FILLER_15_513
*738 FILLER_15_545
*739 FILLER_15_577
*740 FILLER_15_609
*741 FILLER_15_641
*742 FILLER_15_673
*743 FILLER_15_681
*744 FILLER_16_1
*745 FILLER_16_33
*746 FILLER_16_65
*747 FILLER_16_97
*748 FILLER_16_129
*749 FILLER_16_161
*750 FILLER_16_193
*751 FILLER_16_225
*752 FILLER_16_257
*753 FILLER_16_289
*754 FILLER_16_321
*755 FILLER_16_353
*756 FILLER_16_385
*757 FILLER_16_417
*758 FILLER_16_449
*759 FILLER_16_481
*760 FILLER_16_513
*761 FILLER_16_545
*762 FILLER_16_577
*763 FILLER_16_609
*764 FILLER_16_625
*765 FILLER_16_629
*766 FILLER_16_632
*767 FILLER_16_664
*768 FILLER_16_680
*769 FILLER_17_1
*770 FILLER_17_33
*771 FILLER_17_65
*772 FILLER_17_97
*773 FILLER_17_129
*774 FILLER_17_161
*775 FILLER_17_193
*776 FILLER_17_225
*777 FILLER_17_257
*778 FILLER_17_289
*779 FILLER_17_321
*780 FILLER_17_353
*781 FILLER_17_385
*782 FILLER_17_417
*783 FILLER_17_449
*784 FILLER_17_481
*785 FILLER_17_513
*786 FILLER_17_545
*787 FILLER_17_577
*788 FILLER_17_609
*789 FILLER_17_641
*790 FILLER_17_673
*791 FILLER_17_681
*792 FILLER_18_1
*793 FILLER_18_33
*794 FILLER_18_65
*795 FILLER_18_97
*796 FILLER_18_129
*797 FILLER_18_161
*798 FILLER_18_193
*799 FILLER_18_225
*800 FILLER_18_257
*801 FILLER_18_289
*802 FILLER_18_321
*803 FILLER_18_353
*804 FILLER_18_385
*805 FILLER_18_417
*806 FILLER_18_449
*807 FILLER_18_481
*808 FILLER_18_513
*809 FILLER_18_545
*810 FILLER_18_577
*811 FILLER_18_609
*812 FILLER_18_625
*813 FILLER_18_629
*814 FILLER_18_632
*815 FILLER_18_664
*816 FILLER_18_680
*817 FILLER_19_1
*818 FILLER_19_33
*819 FILLER_19_65
*820 FILLER_19_97
*821 FILLER_19_129
*822 FILLER_19_161
*823 FILLER_19_193
*824 FILLER_19_225
*825 FILLER_19_257
*826 FILLER_19_289
*827 FILLER_19_321
*828 FILLER_19_353
*829 FILLER_19_385
*830 FILLER_19_417
*831 FILLER_19_449
*832 FILLER_19_481
*833 FILLER_19_513
*834 FILLER_19_545
*835 FILLER_19_577
*836 FILLER_19_609
*837 FILLER_19_641
*838 FILLER_19_673
*839 FILLER_19_681
*840 FILLER_20_1
*841 FILLER_20_33
*842 FILLER_20_65
*843 FILLER_20_97
*844 FILLER_20_129
*845 FILLER_20_161
*846 FILLER_20_193
*847 FILLER_20_225
*848 FILLER_20_257
*849 FILLER_20_289
*850 FILLER_20_321
*851 FILLER_20_353
*852 FILLER_20_385
*853 FILLER_20_417
*854 FILLER_20_449
*855 FILLER_20_481
*856 FILLER_20_513
*857 FILLER_20_545
*858 FILLER_20_577
*859 FILLER_20_609
*860 FILLER_20_625
*861 FILLER_20_629
*862 FILLER_20_632
*863 FILLER_20_664
*864 FILLER_20_680
*865 FILLER_21_1
*866 FILLER_21_33
*867 FILLER_21_65
*868 FILLER_21_97
*869 FILLER_21_129
*870 FILLER_21_161
*871 FILLER_21_193
*872 FILLER_21_225
*873 FILLER_21_257
*874 FILLER_21_289
*875 FILLER_21_321
*876 FILLER_21_353
*877 FILLER_21_385
*878 FILLER_21_417
*879 FILLER_21_449
*880 FILLER_21_481
*881 FILLER_21_513
*882 FILLER_21_545
*883 FILLER_21_577
*884 FILLER_21_609
*885 FILLER_21_641
*886 FILLER_21_673
*887 FILLER_21_681
*888 FILLER_22_1
*889 FILLER_22_33
*890 FILLER_22_65
*891 FILLER_22_97
*892 FILLER_22_129
*893 FILLER_22_161
*894 FILLER_22_193
*895 FILLER_22_225
*896 FILLER_22_257
*897 FILLER_22_289
*898 FILLER_22_321
*899 FILLER_22_353
*900 FILLER_22_385
*901 FILLER_22_417
*902 FILLER_22_449
*903 FILLER_22_481
*904 FILLER_22_513
*905 FILLER_22_545
*906 FILLER_22_577
*907 FILLER_22_609
*908 FILLER_22_625
*909 FILLER_22_629
*910 FILLER_22_632
*911 FILLER_22_664
*912 FILLER_22_680
*913 FILLER_23_1
*914 FILLER_23_33
*915 FILLER_23_65
*916 FILLER_23_97
*917 FILLER_23_129
*918 FILLER_23_161
*919 FILLER_23_193
*920 FILLER_23_225
*921 FILLER_23_257
*922 FILLER_23_289
*923 FILLER_23_321
*924 FILLER_23_353
*925 FILLER_23_385
*926 FILLER_23_417
*927 FILLER_23_449
*928 FILLER_23_481
*929 FILLER_23_513
*930 FILLER_23_545
*931 FILLER_23_577
*932 FILLER_23_609
*933 FILLER_23_641
*934 FILLER_23_673
*935 FILLER_23_681
*936 FILLER_24_1
*937 FILLER_24_33
*938 FILLER_24_65
*939 FILLER_24_97
*940 FILLER_24_129
*941 FILLER_24_161
*942 FILLER_24_193
*943 FILLER_24_225
*944 FILLER_24_257
*945 FILLER_24_289
*946 FILLER_24_321
*947 FILLER_24_353
*948 FILLER_24_385
*949 FILLER_24_417
*950 FILLER_24_449
*951 FILLER_24_481
*952 FILLER_24_513
*953 FILLER_24_545
*954 FILLER_24_577
*955 FILLER_24_609
*956 FILLER_24_625
*957 FILLER_24_629
*958 FILLER_24_632
*959 FILLER_24_664
*960 FILLER_24_680
*961 FILLER_25_1
*962 FILLER_25_33
*963 FILLER_25_65
*964 FILLER_25_97
*965 FILLER_25_129
*966 FILLER_25_161
*967 FILLER_25_193
*968 FILLER_25_225
*969 FILLER_25_257
*970 FILLER_25_289
*971 FILLER_25_321
*972 FILLER_25_353
*973 FILLER_25_385
*974 FILLER_25_417
*975 FILLER_25_449
*976 FILLER_25_481
*977 FILLER_25_513
*978 FILLER_25_545
*979 FILLER_25_577
*980 FILLER_25_609
*981 FILLER_25_641
*982 FILLER_25_673
*983 FILLER_25_681
*984 FILLER_26_1
*985 FILLER_26_33
*986 FILLER_26_65
*987 FILLER_26_97
*988 FILLER_26_129
*989 FILLER_26_161
*990 FILLER_26_193
*991 FILLER_26_225
*992 FILLER_26_257
*993 FILLER_26_289
*994 FILLER_26_321
*995 FILLER_26_353
*996 FILLER_26_385
*997 FILLER_26_417
*998 FILLER_26_449
*999 FILLER_26_481
*1000 FILLER_26_513
*1001 FILLER_26_545
*1002 FILLER_26_577
*1003 FILLER_26_609
*1004 FILLER_26_625
*1005 FILLER_26_629
*1006 FILLER_26_632
*1007 FILLER_26_664
*1008 FILLER_26_680
*1009 FILLER_27_1
*1010 FILLER_27_33
*1011 FILLER_27_65
*1012 FILLER_27_97
*1013 FILLER_27_129
*1014 FILLER_27_161
*1015 FILLER_27_193
*1016 FILLER_27_225
*1017 FILLER_27_257
*1018 FILLER_27_289
*1019 FILLER_27_321
*1020 FILLER_27_353
*1021 FILLER_27_385
*1022 FILLER_27_417
*1023 FILLER_27_449
*1024 FILLER_27_481
*1025 FILLER_27_513
*1026 FILLER_27_545
*1027 FILLER_27_577
*1028 FILLER_27_609
*1029 FILLER_27_641
*1030 FILLER_27_673
*1031 FILLER_27_681
*1032 FILLER_28_1
*1033 FILLER_28_33
*1034 FILLER_28_65
*1035 FILLER_28_97
*1036 FILLER_28_129
*1037 FILLER_28_161
*1038 FILLER_28_193
*1039 FILLER_28_225
*1040 FILLER_28_257
*1041 FILLER_28_289
*1042 FILLER_28_321
*1043 FILLER_28_353
*1044 FILLER_28_385
*1045 FILLER_28_417
*1046 FILLER_28_449
*1047 FILLER_28_481
*1048 FILLER_28_513
*1049 FILLER_28_545
*1050 FILLER_28_577
*1051 FILLER_28_609
*1052 FILLER_28_625
*1053 FILLER_28_629
*1054 FILLER_28_632
*1055 FILLER_28_664
*1056 FILLER_28_680
*1057 FILLER_29_1
*1058 FILLER_29_33
*1059 FILLER_29_65
*1060 FILLER_29_97
*1061 FILLER_29_129
*1062 FILLER_29_161
*1063 FILLER_29_193
*1064 FILLER_29_225
*1065 FILLER_29_257
*1066 FILLER_29_289
*1067 FILLER_29_321
*1068 FILLER_29_353
*1069 FILLER_29_385
*1070 FILLER_29_417
*1071 FILLER_29_449
*1072 FILLER_29_481
*1073 FILLER_29_513
*1074 FILLER_29_545
*1075 FILLER_29_577
*1076 FILLER_29_609
*1077 FILLER_29_641
*1078 FILLER_29_673
*1079 FILLER_29_681
*1080 FILLER_30_1
*1081 FILLER_30_33
*1082 FILLER_30_65
*1083 FILLER_30_97
*1084 FILLER_30_129
*1085 FILLER_30_161
*1086 FILLER_30_193
*1087 FILLER_30_225
*1088 FILLER_30_257
*1089 FILLER_30_289
*1090 FILLER_30_321
*1091 FILLER_30_353
*1092 FILLER_30_385
*1093 FILLER_30_417
*1094 FILLER_30_449
*1095 FILLER_30_481
*1096 FILLER_30_513
*1097 FILLER_30_545
*1098 FILLER_30_577
*1099 FILLER_30_609
*1100 FILLER_30_625
*1101 FILLER_30_629
*1102 FILLER_30_632
*1103 FILLER_30_664
*1104 FILLER_30_680
*1105 FILLER_31_1
*1106 FILLER_31_33
*1107 FILLER_31_65
*1108 FILLER_31_97
*1109 FILLER_31_129
*1110 FILLER_31_161
*1111 FILLER_31_193
*1112 FILLER_31_225
*1113 FILLER_31_257
*1114 FILLER_31_289
*1115 FILLER_31_321
*1116 FILLER_31_353
*1117 FILLER_31_385
*1118 FILLER_31_417
*1119 FILLER_31_449
*1120 FILLER_31_481
*1121 FILLER_31_513
*1122 FILLER_31_545
*1123 FILLER_31_577
*1124 FILLER_31_609
*1125 FILLER_31_641
*1126 FILLER_31_673
*1127 FILLER_31_681
*1128 FILLER_32_1
*1129 FILLER_32_33
*1130 FILLER_32_65
*1131 FILLER_32_97
*1132 FILLER_32_129
*1133 FILLER_32_161
*1134 FILLER_32_193
*1135 FILLER_32_225
*1136 FILLER_32_257
*1137 FILLER_32_289
*1138 FILLER_32_321
*1139 FILLER_32_353
*1140 FILLER_32_385
*1141 FILLER_32_417
*1142 FILLER_32_449
*1143 FILLER_32_481
*1144 FILLER_32_513
*1145 FILLER_32_545
*1146 FILLER_32_577
*1147 FILLER_32_609
*1148 FILLER_32_625
*1149 FILLER_32_629
*1150 FILLER_32_632
*1151 FILLER_32_664
*1152 FILLER_32_680
*1153 FILLER_33_1
*1154 FILLER_33_33
*1155 FILLER_33_65
*1156 FILLER_33_97
*1157 FILLER_33_129
*1158 FILLER_33_161
*1159 FILLER_33_193
*1160 FILLER_33_225
*1161 FILLER_33_257
*1162 FILLER_33_289
*1163 FILLER_33_321
*1164 FILLER_33_353
*1165 FILLER_33_385
*1166 FILLER_33_417
*1167 FILLER_33_449
*1168 FILLER_33_481
*1169 FILLER_33_513
*1170 FILLER_33_545
*1171 FILLER_33_577
*1172 FILLER_33_609
*1173 FILLER_33_641
*1174 FILLER_33_673
*1175 FILLER_33_681
*1176 FILLER_34_1
*1177 FILLER_34_33
*1178 FILLER_34_65
*1179 FILLER_34_97
*1180 FILLER_34_129
*1181 FILLER_34_161
*1182 FILLER_34_193
*1183 FILLER_34_225
*1184 FILLER_34_257
*1185 FILLER_34_289
*1186 FILLER_34_321
*1187 FILLER_34_353
*1188 FILLER_34_385
*1189 FILLER_34_417
*1190 FILLER_34_449
*1191 FILLER_34_481
*1192 FILLER_34_513
*1193 FILLER_34_545
*1194 FILLER_34_577
*1195 FILLER_34_609
*1196 FILLER_34_625
*1197 FILLER_34_629
*1198 FILLER_34_632
*1199 FILLER_34_664
*1200 FILLER_34_680
*1201 FILLER_35_1
*1202 FILLER_35_33
*1203 FILLER_35_65
*1204 FILLER_35_97
*1205 FILLER_35_129
*1206 FILLER_35_161
*1207 FILLER_35_193
*1208 FILLER_35_225
*1209 FILLER_35_257
*1210 FILLER_35_289
*1211 FILLER_35_321
*1212 FILLER_35_353
*1213 FILLER_35_385
*1214 FILLER_35_417
*1215 FILLER_35_449
*1216 FILLER_35_481
*1217 FILLER_35_513
*1218 FILLER_35_545
*1219 FILLER_35_577
*1220 FILLER_35_609
*1221 FILLER_35_641
*1222 FILLER_35_673
*1223 FILLER_35_681
*1224 FILLER_36_1
*1225 FILLER_36_33
*1226 FILLER_36_65
*1227 FILLER_36_97
*1228 FILLER_36_129
*1229 FILLER_36_161
*1230 FILLER_36_193
*1231 FILLER_36_225
*1232 FILLER_36_257
*1233 FILLER_36_289
*1234 FILLER_36_321
*1235 FILLER_36_353
*1236 FILLER_36_385
*1237 FILLER_36_417
*1238 FILLER_36_449
*1239 FILLER_36_481
*1240 FILLER_36_513
*1241 FILLER_36_545
*1242 FILLER_36_577
*1243 FILLER_36_609
*1244 FILLER_36_625
*1245 FILLER_36_629
*1246 FILLER_36_632
*1247 FILLER_36_664
*1248 FILLER_36_680
*1249 FILLER_37_1
*1250 FILLER_37_33
*1251 FILLER_37_65
*1252 FILLER_37_97
*1253 FILLER_37_129
*1254 FILLER_37_161
*1255 FILLER_37_193
*1256 FILLER_37_225
*1257 FILLER_37_257
*1258 FILLER_37_289
*1259 FILLER_37_321
*1260 FILLER_37_353
*1261 FILLER_37_385
*1262 FILLER_37_417
*1263 FILLER_37_449
*1264 FILLER_37_481
*1265 FILLER_37_513
*1266 FILLER_37_545
*1267 FILLER_37_577
*1268 FILLER_37_609
*1269 FILLER_37_641
*1270 FILLER_37_673
*1271 FILLER_37_681
*1272 FILLER_38_1
*1273 FILLER_38_33
*1274 FILLER_38_65
*1275 FILLER_38_97
*1276 FILLER_38_129
*1277 FILLER_38_161
*1278 FILLER_38_193
*1279 FILLER_38_225
*1280 FILLER_38_257
*1281 FILLER_38_289
*1282 FILLER_38_321
*1283 FILLER_38_353
*1284 FILLER_38_385
*1285 FILLER_38_417
*1286 FILLER_38_449
*1287 FILLER_38_481
*1288 FILLER_38_513
*1289 FILLER_38_545
*1290 FILLER_38_577
*1291 FILLER_38_609
*1292 FILLER_38_625
*1293 FILLER_38_629
*1294 FILLER_38_632
*1295 FILLER_38_664
*1296 FILLER_38_680
*1297 FILLER_39_1
*1298 FILLER_39_33
*1299 FILLER_39_65
*1300 FILLER_39_97
*1301 FILLER_39_129
*1302 FILLER_39_161
*1303 FILLER_39_193
*1304 FILLER_39_225
*1305 FILLER_39_257
*1306 FILLER_39_289
*1307 FILLER_39_321
*1308 FILLER_39_353
*1309 FILLER_39_385
*1310 FILLER_39_417
*1311 FILLER_39_449
*1312 FILLER_39_481
*1313 FILLER_39_513
*1314 FILLER_39_545
*1315 FILLER_39_577
*1316 FILLER_39_609
*1317 FILLER_39_641
*1318 FILLER_39_673
*1319 FILLER_39_681
*1320 FILLER_40_1
*1321 FILLER_40_33
*1322 FILLER_40_65
*1323 FILLER_40_97
*1324 FILLER_40_129
*1325 FILLER_40_161
*1326 FILLER_40_193
*1327 FILLER_40_225
*1328 FILLER_40_257
*1329 FILLER_40_289
*1330 FILLER_40_321
*1331 FILLER_40_353
*1332 FILLER_40_385
*1333 FILLER_40_417
*1334 FILLER_40_449
*1335 FILLER_40_481
*1336 FILLER_40_513
*1337 FILLER_40_545
*1338 FILLER_40_577
*1339 FILLER_40_609
*1340 FILLER_40_625
*1341 FILLER_40_629
*1342 FILLER_40_632
*1343 FILLER_40_664
*1344 FILLER_40_680
*1345 FILLER_41_1
*1346 FILLER_41_33
*1347 FILLER_41_65
*1348 FILLER_41_97
*1349 FILLER_41_129
*1350 FILLER_41_161
*1351 FILLER_41_193
*1352 FILLER_41_225
*1353 FILLER_41_257
*1354 FILLER_41_289
*1355 FILLER_41_321
*1356 FILLER_41_353
*1357 FILLER_41_385
*1358 FILLER_41_417
*1359 FILLER_41_449
*1360 FILLER_41_481
*1361 FILLER_41_513
*1362 FILLER_41_545
*1363 FILLER_41_577
*1364 FILLER_41_609
*1365 FILLER_41_641
*1366 FILLER_41_673
*1367 FILLER_41_681
*1368 FILLER_42_1
*1369 FILLER_42_33
*1370 FILLER_42_65
*1371 FILLER_42_97
*1372 FILLER_42_129
*1373 FILLER_42_161
*1374 FILLER_42_193
*1375 FILLER_42_225
*1376 FILLER_42_257
*1377 FILLER_42_289
*1378 FILLER_42_321
*1379 FILLER_42_353
*1380 FILLER_42_385
*1381 FILLER_42_417
*1382 FILLER_42_449
*1383 FILLER_42_481
*1384 FILLER_42_513
*1385 FILLER_42_545
*1386 FILLER_42_577
*1387 FILLER_42_609
*1388 FILLER_42_625
*1389 FILLER_42_629
*1390 FILLER_42_632
*1391 FILLER_42_664
*1392 FILLER_42_680
*1393 FILLER_43_1
*1394 FILLER_43_33
*1395 FILLER_43_65
*1396 FILLER_43_97
*1397 FILLER_43_129
*1398 FILLER_43_161
*1399 FILLER_43_193
*1400 FILLER_43_225
*1401 FILLER_43_257
*1402 FILLER_43_289
*1403 FILLER_43_321
*1404 FILLER_43_329
*1405 FILLER_43_333
*1406 FILLER_43_338
*1407 FILLER_43_370
*1408 FILLER_43_402
*1409 FILLER_43_434
*1410 FILLER_43_466
*1411 FILLER_43_498
*1412 FILLER_43_530
*1413 FILLER_43_562
*1414 FILLER_43_594
*1415 FILLER_43_626
*1416 FILLER_43_658
*1417 FILLER_43_674
*1418 FILLER_44_1
*1419 FILLER_44_33
*1420 FILLER_44_65
*1421 FILLER_44_97
*1422 FILLER_44_129
*1423 FILLER_44_161
*1424 FILLER_44_193
*1425 FILLER_44_225
*1426 FILLER_44_257
*1427 FILLER_44_289
*1428 FILLER_44_321
*1429 FILLER_44_353
*1430 FILLER_44_385
*1431 FILLER_44_417
*1432 FILLER_44_449
*1433 FILLER_44_481
*1434 FILLER_44_513
*1435 FILLER_44_545
*1436 FILLER_44_577
*1437 FILLER_44_609
*1438 FILLER_44_625
*1439 FILLER_44_629
*1440 FILLER_44_632
*1441 FILLER_44_664
*1442 FILLER_44_680
*1443 FILLER_45_1
*1444 FILLER_45_33
*1445 FILLER_45_65
*1446 FILLER_45_97
*1447 FILLER_45_129
*1448 FILLER_45_161
*1449 FILLER_45_193
*1450 FILLER_45_225
*1451 FILLER_45_257
*1452 FILLER_45_289
*1453 FILLER_45_305
*1454 FILLER_45_307
*1455 FILLER_45_313
*1456 FILLER_45_345
*1457 FILLER_45_352
*1458 FILLER_45_368
*1459 FILLER_45_376
*1460 FILLER_45_380
*1461 FILLER_45_384
*1462 FILLER_45_416
*1463 FILLER_45_448
*1464 FILLER_45_480
*1465 FILLER_45_512
*1466 FILLER_45_544
*1467 FILLER_45_576
*1468 FILLER_45_608
*1469 FILLER_45_640
*1470 FILLER_45_672
*1471 FILLER_45_680
*1472 FILLER_46_1
*1473 FILLER_46_33
*1474 FILLER_46_65
*1475 FILLER_46_97
*1476 FILLER_46_129
*1477 FILLER_46_161
*1478 FILLER_46_193
*1479 FILLER_46_225
*1480 FILLER_46_257
*1481 FILLER_46_289
*1482 FILLER_46_305
*1483 FILLER_46_313
*1484 FILLER_46_315
*1485 FILLER_46_343
*1486 FILLER_46_354
*1487 FILLER_46_370
*1488 FILLER_46_378
*1489 FILLER_46_382
*1490 FILLER_46_387